ID    D07022A,NASTRAN                                                           
APP   DISPLACEMENT                                                              
SOL   7,3                                                                       
TIME  40                                                                        
CEND                                                                            
TITLE    = COMPLEX EIGENVALUE ANALYSIS OF A GAS FILLED THIN CYLINDER            
SUBTITLE = NASTRAN DEMONSTRATION PROBLEM NO. D07-02-2A                          
LABEL    = HARMONIC 5 USING 1/20 SYMMETRY.                                      
 CMETHOD = 1                                                                    
     SPC = 3                                                                    
 AXISYMMETRIC = FLUID                                                           
OUTPUT                                                                          
    HARMONICS = 5                                                               
      SET 100 = 10,11, 26,27, 42,43, 58,59, 74,75, 81 THRU 96,                  
                106,107, 122,123, 138,139, 154,155, 170,171                     
 DISPLACEMENT = 100                                                             
BEGIN BULK                                                                      
AXIF    1       .0      1.8-2   2.88+3  NO                              +AXIF   
+AXIF   5                                                                       
BDYLIST         10      26      42      58      74      90      106     +BDY-1  
+BDY-1  122     138     154     170                                             
CQUAD4  1001    17      1                                                       
CQUAD4  2001    33      17                                                      
CQUAD4  3001    49      33                                                      
CQUAD4  4001    65      49                                                      
CQUAD4  5001    81      65                                                      
CQUAD4  6001    97      81                                                      
CQUAD4  7001    113     97                                                      
CQUAD4  8001    129     113                                                     
CQUAD4  9001    145     129                                                     
CQUAD4  10001   161     145                                                     
CQUAD4  1002    18      2       1       17                                      
CQUAD4  1003    19      3       2       18                                      
CQUAD4  1004    20      4       3       19                                      
CQUAD4  1005    21      5       4       20                                      
CQUAD4  1006    22      6       5       21                                      
CQUAD4  1007    23      7       6       22                                      
CQUAD4  1008    24      8       7       23                                      
CQUAD4  1009    25      9       8       24                                      
CQUAD4  1010    26      10      9       25                                      
CQUAD4  2002    34      18      17      33                                      
$ ... 80 like lines cut
CORD2C  1               .0      .0      .0      .0      .0      1.0     +CORD2C 
+CORD2C 1.0     .0      .0                                                      
CQUAD4  1011    1       27      28      12      11                              
CQUAD4  1012    1       28      29      13      12                              
CQUAD4  1013    1       29      30      14      13                              
CQUAD4  2011    1       43      44      28      27                              
CQUAD4  2012    1       44      45      29      28                              
CQUAD4  2013    1       45      46      30      29                              
CQUAD4  3011    1       59      60      44      43                              
CQUAD4  3012    1       60      61      45      44                              
CQUAD4  3013    1       61      62      46      45                              
CQUAD4  4011    1       75      76      60      59                              
CQUAD4  4012    1       76      77      61      60                              
CQUAD4  4013    1       77      78      62      61                              
CQUAD4  5011    1       91      92      76      75                              
CQUAD4  5012    1       92      93      77      76                              
CQUAD4  5013    1       93      94      78      77                              
CQUAD4  6011    1       107     108     92      91                              
CQUAD4  6012    1       108     109     93      92                              
CQUAD4  6013    1       109     110     94      93                              
CQUAD4  7011    1       123     124     108     107                             
CQUAD4  7012    1       124     125     109     108                             
$ ... 10 like lines cut
EIGC    1       DET     MAX                                             +EIGC   
+EIGC   1.0     .0      1.0     20.0    20.0    1       1                       
FLSYM   20      S       A                                                       
FSLIST          AXIS    1       2       3       4       5       6       +FSL-2  
+FSL-2  7       8       9       10                                              
FSLIST          170     169     168     167     166     165     164     +FSL-1  
+FSL-1  163     162     161     AXIS                                            
GRIDB   11                      .00             1               10              
GRIDB   12                      6.00000         1               10              
GRIDB   13                      12.0000         1               10              
GRIDB   14                      18.0000         1               10              
GRIDB   27                      .00             1               26              
GRIDB   28                      6.00000         1               26              
GRIDB   29                      12.0000         1               26              
GRIDB   30                      18.0000         1               26              
GRIDB   43                      .00             1               42              
GRIDB   44                      6.00000         1               42              
GRIDB   45                      12.0000         1               42              
GRIDB   46                      18.0000         1               42              
GRIDB   59                      .00             1               58              
GRIDB   60                      6.00000         1               58              
GRIDB   61                      12.0000         1               58              
GRIDB   62                      18.0000         1               58              
GRIDB   75                      .00             1               74              
GRIDB   76                      6.00000         1               74              
GRIDB   77                      12.0000         1               74              
GRIDB   78                      18.0000         1               74              
$ ... 24 like lines cut
MAT1    2       1.6+5   6.0+4           6.0-2                                   
PSHELL  1       2       .01     2       8.3333-8                        +PQUAD1 
+PQUAD1 .0      .005                                                            
RINGFL  1       1.00000         10.0000 2       2.00000         10.0000         
RINGFL  3       3.00000         10.0000 4       4.00000         10.0000         
RINGFL  5       5.00000         10.0000 6       6.00000         10.0000         
RINGFL  7       7.00000         10.0000 8       8.00000         10.0000         
RINGFL  9       9.00000         10.0000 10      10.0000         10.0000         
RINGFL  17      1.00000         9.00000 18      2.00000         9.00000         
RINGFL  19      3.00000         9.00000 20      4.00000         9.00000         
RINGFL  21      5.00000         9.00000 22      6.00000         9.00000         
RINGFL  23      7.00000         9.00000 24      8.00000         9.00000         
RINGFL  25      9.00000         9.00000 26      10.0000         9.00000         
RINGFL  33      1.00000         8.00000 34      2.00000         8.00000         
RINGFL  35      3.00000         8.00000 36      4.00000         8.00000         
RINGFL  37      5.00000         8.00000 38      6.00000         8.00000         
RINGFL  39      7.00000         8.00000 40      8.00000         8.00000         
RINGFL  41      9.00000         8.00000 42      10.0000         8.00000         
RINGFL  49      1.00000         7.00000 50      2.00000         7.00000         
RINGFL  51      3.00000         7.00000 52      4.00000         7.00000         
RINGFL  53      5.00000         7.00000 54      6.00000         7.00000         
RINGFL  55      7.00000         7.00000 56      8.00000         7.00000         
RINGFL  57      9.00000         7.00000 58      10.0000         7.00000         
$ ... 35 like lines cut
SPC1    3       126     11      12      13      14                      H=5     
SPC1    3       126     171     172     173     174                     H=5     
SPC1    3       135     14      30      46      62      78      94      H=5     
SPC1    3       135     110     126     142     158     174             H=5     
SPC1    3       246     11      27      43      59      75      91      H=5     
SPC1    3       246     107     123     139     155     171             H=5     
ENDDATA                                                                         
                                                                                
