





                                  ****
                                *      *
                               *        *
                               *  N A S T R A N
                               *        *
                                *      *
                                  ****


                             SUN COMPUTER SYSTEMS    
                                SOLARIS VERSION

                          SYSTEM RELEASE -  1995 ED.

                                DISTRIBUTED BY

         COMPUTER SOFTWARE MANAGEMENT AND INFORMATION CENTER (COSMIC)
                 UNIVERSITY OF GEORGIA, ATHENS, GEORGIA 30602
                 PHONE: (706)542-3265      FAX: (706)542-4807
1                                                                           /    95 SUN SOLARIS NASTRAN    / FEB 10, 26 / PAGE     2
                                                                                                                                    
0                                                                                                                                   
                                                                                                         
                                                                                                         
                         INSTALLATION CENTER USER INFORMATION GIVEN IN THIS SECTION                      
                                                                                                         
                                     *********************************************                       
                                     *                                           *                       
                                     *  PLEASE READ THE COMMENT IN DEMO PROBLEM  *                       
                                     *  D01002A ABOUT SYSTEM TIMING CONSTANTS    *                       
                                     *                                           *                       
                                     *********************************************                       
                                                                                                         
                         ===X=    TOP OF PAGE REQUEST IF 'X' IS REPLACED BY '='                          
                                                                                                         
1                                                                           /    95 SUN SOLARIS NASTRAN    / FEB 10, 26 / PAGE     3
                                                                                                                                    
0        N A S T R A N    E X E C U T I V E    C O N T R O L    D E C K    E C H O                                                  
0                                                                                                                                   
                                                                                                                                    
                                                                                                                                    
     ID    D02033A,NASTRAN                                                           
     APP   DISP,SUBS                                                                 
     SOL   3,0                                                                       
0*** USER FATAL MESSAGE  507, ILLEGAL SPECIFICATION OR FORMAT ON PRECEDING CARD.
     IMHERE =  397
     TIME  25                                                                        
     DIAG  23                                                                        
0*** USER FATAL MESSAGE  507, ILLEGAL SPECIFICATION OR FORMAT ON PRECEDING CARD.
     IMHERE =  520
     CEND                                                                            
1                                                                           /    95 SUN SOLARIS NASTRAN    / FEB 10, 26 / PAGE     4
                                                                                                                                    
0                            N A S T R A N  S U B S T R U C T U R E  D E C K  E C H O                                               
0                                                                                                                                   
                                                                                                                                    
                                                                                                                                    
     SUBSTRUCTURE PHASE2                                                             
     PASSWORD = MDLSYN                                                               
0*** USER FATAL MESSAGE 300 *** INTEGER DATA OUT OF MACHINE RANGE

     'SOF(1)   = FT19,500 $ DEC VAX                                           '
     SOF(1)   = FT19,500 $ DEC VAX                                                   
     OPTIONS K,M,P                                                                   
     SOFPRINT TOC                                                                    
     MREDUCE ABASIC                                                                  
      NAME MA                                                                        
      BOUNDARY 5                                                                     
      FIXED 5                                                                        
      METHOD 9                                                                       
0*** USER FATAL MESSAGE 300 *** INTEGER DATA OUT OF MACHINE RANGE

     ' OUTPUT 1,5,6,9,10                                                      '
      OUTPUT 1,5,6,9,10                                                              
     SOFPRINT TOC                                                                    
     MREDUCE BBASIC                                                                  
      NAME MB                                                                        
      BOUNDARY 4                                                                     
      FIXED 4                                                                        
      METHOD 9                                                                       
0*** USER FATAL MESSAGE 300 *** INTEGER DATA OUT OF MACHINE RANGE

     ' OUTPUT 1,5,6,9,10                                                      '
      OUTPUT 1,5,6,9,10                                                              
     SOFPRINT TOC                                                                    
     COMBINE MA,MB                                                                   
      NAME MCOMB                                                                     
      TOLERANCE 0.001                                                                
0*** USER FATAL MESSAGE 300 *** INTEGER DATA OUT OF MACHINE RANGE

     ' OUTPUT 2,7,12                                                          '
      OUTPUT 2,7,12                                                                  
      COMPONENT MB                                                                   
0*** USER FATAL MESSAGE 300 *** INTEGER DATA OUT OF MACHINE RANGE

     ' TRANSFORM 40                                                           '
      TRANSFORM 40                                                                   
     SOFPRINT TOC                                                                    
     MREDUCE MCOMB                                                                   
      NAME RTRUSS                                                                    
0*** USER FATAL MESSAGE 300 *** INTEGER DATA OUT OF MACHINE RANGE

     ' BOUNDARY 42                                                            '
      BOUNDARY 42                                                                    
      FIXED 9                                                                        
