





                                  ****
                                *      *
                               *        *
                               *  N A S T R A N
                               *        *
                                *      *
                                  ****


                             SUN COMPUTER SYSTEMS    
                                SOLARIS VERSION

                          SYSTEM RELEASE -  1995 ED.

                                DISTRIBUTED BY

         COMPUTER SOFTWARE MANAGEMENT AND INFORMATION CENTER (COSMIC)
                 UNIVERSITY OF GEORGIA, ATHENS, GEORGIA 30602
                 PHONE: (706)542-3265      FAX: (706)542-4807
1                                                                           /    95 SUN SOLARIS NASTRAN    / FEB 10, 26 / PAGE     2
                                                                                                                                    
0                                                                                                                                   
                                                                                                         
                                                                                                         
                         INSTALLATION CENTER USER INFORMATION GIVEN IN THIS SECTION                      
                                                                                                         
                                     *********************************************                       
                                     *                                           *                       
                                     *  PLEASE READ THE COMMENT IN DEMO PROBLEM  *                       
                                     *  D01002A ABOUT SYSTEM TIMING CONSTANTS    *                       
                                     *                                           *                       
                                     *********************************************                       
                                                                                                         
                         ===X=    TOP OF PAGE REQUEST IF 'X' IS REPLACED BY '='                          
                                                                                                         
1                                                                           /    95 SUN SOLARIS NASTRAN    / FEB 10, 26 / PAGE     3
                                                                                                                                    
0        N A S T R A N    E X E C U T I V E    C O N T R O L    D E C K    E C H O                                                  
0                                                                                                                                   
                                                                                                                                    
                                                                                                                                    
     ID    T01191A,NASTRAN                                                           
     DIAG  14                                                                        
0*** USER FATAL MESSAGE  507, ILLEGAL SPECIFICATION OR FORMAT ON PRECEDING CARD.
     IMHERE =  520
     APP   HEAT                                                                      
     SOL   1                                                                         
0*** USER FATAL MESSAGE  507, ILLEGAL SPECIFICATION OR FORMAT ON PRECEDING CARD.
     IMHERE =  397
     TIME  20                                                                        
     ALTER   67,67 $                                                                 
0*** USER FATAL MESSAGE  507, ILLEGAL SPECIFICATION OR FORMAT ON PRECEDING CARD.
     IMHERE =  350
     MAGBDY  GEOM1,HEQEXIN/PER/S,N,IPG $                                             
     SSG1    HSLT,BGPDT,CSTM,HSIL,HEST,MPT,GPTT,EDT,,CASECC,DIT,PER/                 
             HPG,HCFLD,REMFLD,HCCEN,NSLT/HLUSET/NSKIP $                              
     ALTER   77 $                                                                    
0*** USER FATAL MESSAGE  507, ILLEGAL SPECIFICATION OR FORMAT ON PRECEDING CARD.
     IMHERE =  350
     SDR1,   ,HCFLD,,,,,,,,, /,HCFLDG,/V,N,NSKIP/C,N,STATICS $                       
     SDR1,   ,HCCEN,,,,,,,,, /,HCCENG,/V,N,NSKIP/C,N,STATICS $                       
     SDR1,   ,REMFLD,,,,,,,,,/,REMFLG,/V,N,NSKIP/C,N,STATICS $                       
     ALTER   84 $                                                                    
0*** USER FATAL MESSAGE  507, ILLEGAL SPECIFICATION OR FORMAT ON PRECEDING CARD.
     IMHERE =  350
     EMFLD   HOEF1,HEST,CASECC,HCFLDG,MPT,DIT,REMFLG,GEOM1,CSTM,                     
             HCCENG/HOEH1/V,N,HLUSET $                                               
     ALTER   85 $                                                                    
0*** USER FATAL MESSAGE  507, ILLEGAL SPECIFICATION OR FORMAT ON PRECEDING CARD.
     IMHERE =  350
     OFP     HOEH1,,,,,//S,N,CARDNO $                                                
     PROLATE GEOM1,HEQEXIN,BGPDT,CASECC,NSLT,HUGV,REMFLG,HEST,MPT,DIT/PROCOF$        
     OUTPUT2 PROCOF,,,,//0/11 $                                                      
     TABPT   PROCOF,,,,// $                                                          
     ENDALTER $                                                                      
     CEND                                                                            
1     ELECTRIC AND MAGNETOSTATICS PROBLEM USING 2-D ELEMENTS                /    95 SUN SOLARIS NASTRAN    / FEB 10, 26 / PAGE     4
      NASTRAN TEST PROBLEM NO. T01-19-1A                                                                                            
0                                                                                                                                   
0                                        C A S E    C O N T R O L   D E C K   E C H O                                               
                 CARD                                                                                                               
                 COUNT                                                                                                              
                  1      TITLE    = ELECTRIC AND MAGNETOSTATICS PROBLEM USING 2-D ELEMENTS               
                  2      SUBTITLE = NASTRAN TEST PROBLEM NO. T01-19-1A                                   
                  3      DISP    = ALL                                                                   
0*** USER FATAL MESSAGE    603
 THE ABOVE CARD DOES NOT END PROPERLY. COMMENTS SHOULDBE PRECEEDED
 BY A DOLLAR SIGN.
                  4      OLOAD   = ALL                                                                   
0*** USER FATAL MESSAGE    603
 THE ABOVE CARD DOES NOT END PROPERLY. COMMENTS SHOULDBE PRECEEDED
 BY A DOLLAR SIGN.
                  5      ELFORCE = ALL                                                                   
0*** USER FATAL MESSAGE    603
 THE ABOVE CARD DOES NOT END PROPERLY. COMMENTS SHOULDBE PRECEEDED
 BY A DOLLAR SIGN.
                  6      SUBCASE 1                                                                       
                  7         LOAD = 6                                                                     
0*** USER FATAL MESSAGE    603
 THE ABOVE CARD DOES NOT END PROPERLY. COMMENTS SHOULDBE PRECEEDED
 BY A DOLLAR SIGN.
                  8      SUBCASE 2                                                                       
                  9         LOAD = 5                                                                     
0*** USER FATAL MESSAGE    603
 THE ABOVE CARD DOES NOT END PROPERLY. COMMENTS SHOULDBE PRECEEDED
 BY A DOLLAR SIGN.
                 10      SUBCASE 3                                                                       
