     NASTRAN FILES=PLT2                                                              






                                  ****
                                *      *
                               *        *
                               *  N A S T R A N
                               *        *
                                *      *
                                  ****


                             SUN COMPUTER SYSTEMS    
                                SOLARIS VERSION

                          SYSTEM RELEASE -  1995 ED.

                                DISTRIBUTED BY

         COMPUTER SOFTWARE MANAGEMENT AND INFORMATION CENTER (COSMIC)
                 UNIVERSITY OF GEORGIA, ATHENS, GEORGIA 30602
                 PHONE: (706)542-3265      FAX: (706)542-4807
1                                                                           /    95 SUN SOLARIS NASTRAN    / FEB 10, 26 / PAGE     2
                                                                                                                                    
0                                                                                                                                   
                                                                                                         
                                                                                                         
                         INSTALLATION CENTER USER INFORMATION GIVEN IN THIS SECTION                      
                                                                                                         
                                     *********************************************                       
                                     *                                           *                       
                                     *  PLEASE READ THE COMMENT IN DEMO PROBLEM  *                       
                                     *  D01002A ABOUT SYSTEM TIMING CONSTANTS    *                       
                                     *                                           *                       
                                     *********************************************                       
                                                                                                         
                         ===X=    TOP OF PAGE REQUEST IF 'X' IS REPLACED BY '='                          
                                                                                                         
1                                                                           /    95 SUN SOLARIS NASTRAN    / FEB 10, 26 / PAGE     3
                                                                                                                                    
0        N A S T R A N    E X E C U T I V E    C O N T R O L    D E C K    E C H O                                                  
0                                                                                                                                   
                                                                                                                                    
                                                                                                                                    
     ID    D05011A,NASTRAN                                                           
     APP   DISPLACEMENT                                                              
     SOL   5,1                                                                       
0*** USER FATAL MESSAGE  507, ILLEGAL SPECIFICATION OR FORMAT ON PRECEDING CARD.
     IMHERE =  397
     TIME  26                                                                        
     CEND                                                                            
1     SYMMETRIC BUCKLING OF A CYLINDER                                      /    95 SUN SOLARIS NASTRAN    / FEB 10, 26 / PAGE     4
      NASTRAN DEMONSTRATION PROBLEM NO. D05-01-1A                                                                                   
0                                                                                                                                   
0                                        C A S E    C O N T R O L   D E C K   E C H O                                               
                 CARD                                                                                                               
                 COUNT                                                                                                              
                  1      TITLE    = SYMMETRIC BUCKLING OF A CYLINDER                                     
                  2      SUBTITLE = NASTRAN DEMONSTRATION PROBLEM NO. D05-01-1A                          
                  3                 SPC  = 1                                                             
0*** USER FATAL MESSAGE    603
 THE ABOVE CARD DOES NOT END PROPERLY. COMMENTS SHOULDBE PRECEEDED
 BY A DOLLAR SIGN.
                  4      OUTPUT                                                                          
0*** USER FATAL MESSAGE    617
 INCORRECT OR MISSING VALUE ON CASE CONTROL CARD.  CHECK FOR CORRECT CARD FORMAT.
                  5                 SET 1 = 1 THRU 33                                                    
0*** USER FATAL MESSAGE    614
 THE ABOVE SET IS INCORRECTLY SPECIFIED.  CHECK FORMAT ON THIS OR PREVIOUS CARD.
                  6                 SET 2 = 2,6,10,14,18,22,26,30,34,38,42,46,50,54,58,62,66,70,         
                  7                         74,78                                                        
0*** USER FATAL MESSAGE 300 *** INTEGER DATA OUT OF MACHINE RANGE

     '                   74,78                                                '
                  8         DISPLACEMENTS = 1                                                            
0*** USER FATAL MESSAGE    614
 THE ABOVE SET IS INCORRECTLY SPECIFIED.  CHECK FORMAT ON THIS OR PREVIOUS CARD.
                  9              SPCFORCE = ALL                                                          
0*** USER FATAL MESSAGE    603
 THE ABOVE CARD DOES NOT END PROPERLY. COMMENTS SHOULDBE PRECEEDED
 BY A DOLLAR SIGN.
                 10               ELFORCE = 2                                                            
0*** USER FATAL MESSAGE    608
 THE SET ID SPECIFIED ON THE ABOVE CARD MUST BE DEFINED PRIOR TO THIS CARD.
                 11              ELSTRESS = 2                                                            
0*** USER FATAL MESSAGE    608
 THE SET ID SPECIFIED ON THE ABOVE CARD MUST BE DEFINED PRIOR TO THIS CARD.
                 12      $                                                                               
                 13      SUBCASE 1                                                                       
                 14       LABEL =         STATIC SOLUTION                                                
                 15       LOAD  = 100                                                                    
0*** USER FATAL MESSAGE    603
 THE ABOVE CARD DOES NOT END PROPERLY. COMMENTS SHOULDBE PRECEEDED
 BY A DOLLAR SIGN.
                 16       OUTPUT                                                                         
0*** USER FATAL MESSAGE    617
 INCORRECT OR MISSING VALUE ON CASE CONTROL CARD.  CHECK FOR CORRECT CARD FORMAT.
                 17       OLOAD = ALL                                                                    
1     SYMMETRIC BUCKLING OF A CYLINDER                                      /    95 SUN SOLARIS NASTRAN    / FEB 10, 26 / PAGE     5
      NASTRAN DEMONSTRATION PROBLEM NO. D05-01-1A                                                                                   
0                                                                                                                                   
0                                        C A S E    C O N T R O L   D E C K   E C H O                                               
                 CARD                                                                                                               
                 COUNT                                                                                                              
0*** USER FATAL MESSAGE    603
 THE ABOVE CARD DOES NOT END PROPERLY. COMMENTS SHOULDBE PRECEEDED
 BY A DOLLAR SIGN.
                 18      $                                                                               
                 19      SUBCASE 2                                                                       
                 20       LABEL =         BUCKLING SOLUTION                                              
                 21      METHOD = 300                                                                    
0*** USER FATAL MESSAGE    603
 THE ABOVE CARD DOES NOT END PROPERLY. COMMENTS SHOULDBE PRECEEDED
 BY A DOLLAR SIGN.
                 22      $                                                                               
                 23      $                                                                               
                 24      PLOTID = NASTRAN DEMONSTRATION PROBLEM NO. D05-01-1A                            
                 25      OUTPUT(PLOT)                                                                    
                 26      PLOTTER NASTPLT                                                                 
                 27              SET 1 INCLUDE TRIA1                                                     
0*** USER FATAL MESSAGE 351
+                               - KEYWORD "    NOT RECOGNIZED
0*** USER FATAL MESSAGE 351
+                               - KEYWORD *    NOT RECOGNIZED
0*** USER FATAL MESSAGE 351
+                               - KEYWORD 2    NOT RECOGNIZED
0*** USER FATAL MESSAGE 351
+                               - KEYWORD :    NOT RECOGNIZED
0*** USER FATAL MESSAGE 351
+                               - KEYWORD B    NOT RECOGNIZED
0*** USER FATAL MESSAGE 351
+                               - KEYWORD     NOT RECOGNIZED
0*** USER FATAL MESSAGE 351
+                               - KEYWORD LACE NOT RECOGNIZED
0*** USER FATAL MESSAGE 351
+                               - KEYWORD =    NOT RECOGNIZED
0*** USER FATAL MESSAGE 351
+                               - KEYWORD     NOT RECOGNIZED
0*** USER FATAL MESSAGE 351
+                               - KEYWORD *    NOT RECOGNIZED
0*** USER FATAL MESSAGE 351
+                               - KEYWORD .    NOT RECOGNIZED
0*** USER FATAL MESSAGE 351
+                               - KEYWORD 2    NOT RECOGNIZED
0*** USER FATAL MESSAGE 351
+                               - KEYWORD 6    NOT RECOGNIZED
0*** USER FATAL MESSAGE 351
+                               - KEYWORD :    NOT RECOGNIZED
1     SYMMETRIC BUCKLING OF A CYLINDER                                      /    95 SUN SOLARIS NASTRAN    / FEB 10, 26 / PAGE     6
      NASTRAN DEMONSTRATION PROBLEM NO. D05-01-1A                                                                                   

                                                                                                                                    




0*** USER FATAL MESSAGE 351
+                               - KEYWORD >    NOT RECOGNIZED
0*** USER FATAL MESSAGE 351
+                               - KEYWORD B    NOT RECOGNIZED
0*** USER FATAL MESSAGE 351
+                               - KEYWORD F    NOT RECOGNIZED
                 28      $                                                                               
                 29              PERSPECTIVE PROJECTION                                                  
0*** USER FATAL MESSAGE 351
+                               - KEYWORD PERS NOT RECOGNIZED
0*** USER FATAL MESSAGE 351
+                               - KEYWORD PROJ NOT RECOGNIZED
0*** USER FATAL MESSAGE 351
+                               - KEYWORD Õz   NOT RECOGNIZED
0*** USER FATAL MESSAGE 351
+                               - KEYWORD &    NOT RECOGNIZED
0*** USER FATAL MESSAGE 351
+                               - KEYWORD .    NOT RECOGNIZED
0*** USER FATAL MESSAGE 351
+                               - KEYWORD 6    NOT RECOGNIZED
