     NASTRAN FILES=PLT2                                                              






                                  ****
                                *      *
                               *        *
                               *  N A S T R A N
                               *        *
                                *      *
                                  ****


                             SUN COMPUTER SYSTEMS    
                                SOLARIS VERSION

                          SYSTEM RELEASE -  1995 ED.

                                DISTRIBUTED BY

         COMPUTER SOFTWARE MANAGEMENT AND INFORMATION CENTER (COSMIC)
                 UNIVERSITY OF GEORGIA, ATHENS, GEORGIA 30602
                 PHONE: (706)542-3265      FAX: (706)542-4807
1                                                                           /    95 SUN SOLARIS NASTRAN    / FEB 10, 26 / PAGE     2
                                                                                                                                    
0                                                                                                                                   
                                                                                                         
                                                                                                         
                         INSTALLATION CENTER USER INFORMATION GIVEN IN THIS SECTION                      
                                                                                                         
                                     *********************************************                       
                                     *                                           *                       
                                     *  PLEASE READ THE COMMENT IN DEMO PROBLEM  *                       
                                     *  D01002A ABOUT SYSTEM TIMING CONSTANTS    *                       
                                     *                                           *                       
                                     *********************************************                       
                                                                                                         
                         ===X=    TOP OF PAGE REQUEST IF 'X' IS REPLACED BY '='                          
                                                                                                         
1                                                                           /    95 SUN SOLARIS NASTRAN    / FEB 10, 26 / PAGE     3
                                                                                                                                    
0        N A S T R A N    E X E C U T I V E    C O N T R O L    D E C K    E C H O                                                  
0                                                                                                                                   
                                                                                                                                    
                                                                                                                                    
     ID    D03013A,NASTRAN                                                           
     ALTER 1 $                                                                       
0*** USER FATAL MESSAGE  507, ILLEGAL SPECIFICATION OR FORMAT ON PRECEDING CARD.
     IMHERE =  350
     PARAM   //C,N,NOP/V,N,TRUE=-1 $                                                 
     INPUT,  ,GEOM2,,,/G1,G2,,G4,/C,N,3/C,N,1 $                                      
     EQUIV   G1,GEOM1/TRUE / G2,GEOM2/TRUE / G4,GEOM4/TRUE $                         
     ENDALTER $                                                                      
     APP     DISPLACEMENT                                                            
     SOL     3,1                                                                     
0*** USER FATAL MESSAGE  507, ILLEGAL SPECIFICATION OR FORMAT ON PRECEDING CARD.
     IMHERE =  397
     DIAG    14                                                                      
0*** USER FATAL MESSAGE  507, ILLEGAL SPECIFICATION OR FORMAT ON PRECEDING CARD.
     IMHERE =  520
     TIME    35                                                                      
     CEND                                                                            
1     VIBRATIONS OF A 10 BY 20 PLATE                                        /    95 SUN SOLARIS NASTRAN    / FEB 10, 26 / PAGE     4
      NASTRAN DEMONSTRATION PROBLEM NO. D03-01-3A                                                                                   
0                                                                                                                                   
0                                        C A S E    C O N T R O L   D E C K   E C H O                                               
                 CARD                                                                                                               
                 COUNT                                                                                                              
                  1      TITLE    = VIBRATIONS OF A 10 BY 20 PLATE                                       
                  2      SUBTITLE = NASTRAN DEMONSTRATION PROBLEM NO. D03-01-3A                          
                  3      $                                                                               
                  4           SPC = 10020                                                                
0*** USER FATAL MESSAGE    603
 THE ABOVE CARD DOES NOT END PROPERLY. COMMENTS SHOULDBE PRECEEDED
 BY A DOLLAR SIGN.
                  5        METHOD = 5 $ ENCLOSE 2 MODES - FINDS 3 ROOTS                                  
0*** USER FATAL MESSAGE    603
 THE ABOVE CARD DOES NOT END PROPERLY. COMMENTS SHOULDBE PRECEEDED
 BY A DOLLAR SIGN.
                  6      $              ROOTS ARE AT THE FOLLOWING FREQUENCIES (THEORETICAL)             
                  7      $       MODE    M       N       FREQ                                            
                  8      $       1       1       1       9.068997E-1                                     
                  9      $       2       1       2       2.267249                                        
                 10      $       5       1       3       4.534498                                        
                 11      $       6       3       1       4.534498                                        
                 12      $       7       3       2       5.894848                                        
                 13      $       9       1       4       7.708647                                        
                 14      $                                                                               
                 15      OUTPUT                                                                          
0*** USER FATAL MESSAGE    617
 INCORRECT OR MISSING VALUE ON CASE CONTROL CARD.  CHECK FOR CORRECT CARD FORMAT.
                 16         SET 1 = 1 THRU 11, 34 THRU 44, 56 THRU 66, 78 THRU 88, 111 THRU 121          
0*** USER FATAL MESSAGE    614
 THE ABOVE SET IS INCORRECTLY SPECIFIED.  CHECK FORMAT ON THIS OR PREVIOUS CARD.
                 17         SET 2 = 1 THRU 12, 22,23,33,34,44,45,55,56,66,67,77,78,88,89,                
                 18                 99,100, 110 THRU 121                                                 
0*** USER FATAL MESSAGE 300 *** INTEGER DATA OUT OF MACHINE RANGE

     '           99,100, 110 THRU 121                                         '
                 19         DISPLACEMENTS = 1                                                            
0*** USER FATAL MESSAGE    614
 THE ABOVE SET IS INCORRECTLY SPECIFIED.  CHECK FORMAT ON THIS OR PREVIOUS CARD.
                 20         SPCFORCE = 2                                                                 
0*** USER FATAL MESSAGE    608
 THE SET ID SPECIFIED ON THE ABOVE CARD MUST BE DEFINED PRIOR TO THIS CARD.
                 21      $                                                                               
                 22      PLOTID = NASTRAN DEMONSTRATION PROBLEM NO. D03-01-3A                            
                 23      OUTPUT(PLOT)                                                                    
                 24      PLOTTER NASTPLT                                                                 
                 25               SET 1 INCLUDE PLOTEL                                                   
0*** USER FATAL MESSAGE 351
+                               - KEYWORD 7    NOT RECOGNIZED
1     VIBRATIONS OF A 10 BY 20 PLATE                                        /    95 SUN SOLARIS NASTRAN    / FEB 10, 26 / PAGE     5
      NASTRAN DEMONSTRATION PROBLEM NO. D03-01-3A                                                                                   

                                                                                                                                    




0*** USER FATAL MESSAGE 351
+                               - KEYWORD B    NOT RECOGNIZED
0*** USER FATAL MESSAGE 351
+                               - KEYWORD M    NOT RECOGNIZED
0*** USER FATAL MESSAGE 351
+                               - KEYWORD X    NOT RECOGNIZED
0*** USER FATAL MESSAGE 351
+                               - KEYWORD     NOT RECOGNIZED
0*** USER FATAL MESSAGE 351
+                               - KEYWORD LACE NOT RECOGNIZED
0*** USER FATAL MESSAGE 351
+                               - KEYWORD =    NOT RECOGNIZED
0*** USER FATAL MESSAGE 351
+                               - KEYWORD     NOT RECOGNIZED
                 26               SET 2 INCLUDE QUAD1                                                    
0*** USER FATAL MESSAGE 351
+                               - KEYWORD SET  NOT RECOGNIZED
0*** USER FATAL MESSAGE 351
+                               - KEYWORD B    NOT RECOGNIZED
0*** USER FATAL MESSAGE 351
+                               - KEYWORD M    NOT RECOGNIZED
0*** USER FATAL MESSAGE 351
+                               - KEYWORD X    NOT RECOGNIZED
0*** USER FATAL MESSAGE 351
+                               - KEYWORD     NOT RECOGNIZED
0*** USER FATAL MESSAGE 351
+                               - KEYWORD LACE NOT RECOGNIZED
0*** USER FATAL MESSAGE 351
+                               - KEYWORD =    NOT RECOGNIZED
0*** USER FATAL MESSAGE 351
+                               - KEYWORD     NOT RECOGNIZED
                 27               MAXIMUM DEFORMATION  1.0                                               
0*** USER FATAL MESSAGE 351
+                               - KEYWORD MAXI NOT RECOGNIZED
0*** USER FATAL MESSAGE 351
+                               - KEYWORD DEFO NOT RECOGNIZED
0*** USER FATAL MESSAGE 355
+                               - DATA TYPE IS INCORRECT
0*** USER FATAL MESSAGE 351
+                               - KEYWORD 8    NOT RECOGNIZED
0*** USER FATAL MESSAGE 351
+                               - KEYWORD C    NOT RECOGNIZED
0*** USER FATAL MESSAGE 351
+                               - KEYWORD N    NOT RECOGNIZED
0*** USER FATAL MESSAGE 351
+                               - KEYWORD Y    NOT RECOGNIZED
1     VIBRATIONS OF A 10 BY 20 PLATE                                        /    95 SUN SOLARIS NASTRAN    / FEB 10, 26 / PAGE     6
      NASTRAN DEMONSTRATION PROBLEM NO. D03-01-3A                                                                                   

                                                                                                                                    




0*** USER FATAL MESSAGE 351
+                               - KEYWORD DISP NOT RECOGNIZED
0*** USER FATAL MESSAGE 351
+                               - KEYWORD p NOT RECOGNIZED
0*** USER FATAL MESSAGE 351
+                               - KEYWORD     NOT RECOGNIZED
0*** USER FATAL MESSAGE 351
+                               - KEYWORD 7    NOT RECOGNIZED
0*** USER FATAL MESSAGE 351
+                               - KEYWORD 8    NOT RECOGNIZED
