 DEBUG: NASTRAN main program starting...






                                  ****
                                *      *
                               *        *
                               *  N A S T R A N
                               *        *
                                *      *
                                  ****


                             SUN COMPUTER SYSTEMS    
                                SOLARIS VERSION

                          SYSTEM RELEASE -  1995 ED.

                                DISTRIBUTED BY

         COMPUTER SOFTWARE MANAGEMENT AND INFORMATION CENTER (COSMIC)
                 UNIVERSITY OF GEORGIA, ATHENS, GEORGIA 30602
                 PHONE: (706)542-3265      FAX: (706)542-4807
1                                                                           /    95 SUN SOLARIS NASTRAN    / FEB 10, ** / PAGE     2
                                                                                                                                    
0                                                                                                                                   
                                                                                                         
                                                                                                         
                         INSTALLATION CENTER USER INFORMATION GIVEN IN THIS SECTION                      
                                                                                                         
                                     *********************************************                       
                                     *                                           *                       
                                     *  PLEASE READ THE COMMENT IN DEMO PROBLEM  *                       
                                     *  D01002A ABOUT SYSTEM TIMING CONSTANTS    *                       
                                     *                                           *                       
                                     *********************************************                       
                                                                                                         
                         ===X=    TOP OF PAGE REQUEST IF 'X' IS REPLACED BY '='                          
                                                                                                         
1                                                                           /    95 SUN SOLARIS NASTRAN    / FEB 10, ** / PAGE     3
                                                                                                                                    
0        N A S T R A N    E X E C U T I V E    C O N T R O L    D E C K    E C H O                                                  
0                                                                                                                                   
                                                                                                                                    
                                                                                                                                    
     ID    D02027A,NASTRAN                                                           
     APP   DISP,SUBS                                                                 
     SOL   3,0                                                                       
0*** USER FATAL MESSAGE  507, ILLEGAL SPECIFICATION OR FORMAT ON PRECEDING CARD.
     IMHERE =  397
     TIME  20                                                                        
     DIAG  23                                                                        
0*** USER FATAL MESSAGE  507, ILLEGAL SPECIFICATION OR FORMAT ON PRECEDING CARD.
     IMHERE =  520
     CEND                                                                            
1                                                                           /    95 SUN SOLARIS NASTRAN    / FEB 10, ** / PAGE     4
                                                                                                                                    
0                            N A S T R A N  S U B S T R U C T U R E  D E C K  E C H O                                               
0                                                                                                                                   
                                                                                                                                    
                                                                                                                                    
     SUBSTRUCTURE PHASE2                                                             
       PASSWORD = DEMO                                                               
0*** USER FATAL MESSAGE 300 *** INTEGER DATA OUT OF MACHINE RANGE

     '  SOF(1)   = FT18,950 $ DEC VAX                                         '
       SOF(1)   = FT18,950 $ DEC VAX                                                 
       SOFPRINT TOC                                                                  
       EQUIV SMALLMIL,SMILLDYN                                                       
       PREFIX = D                                                                    
       SOFPRINT TOC                                                                  
       SOLVE SMILLDYN                                                                
       RECOVER SMILLDYN                                                              
0*** USER FATAL MESSAGE 6003. ILLEGAL COMMANDS OR OPTIONS DEFINED ON NEXT CARD
       PRINT DWINDMIL                                                                
0*** USER FATAL MESSAGE 6011, SOF DATA PASSWORD MISSING
       ENDSUBS
1                                                                           /    95 SUN SOLARIS NASTRAN    / FEB 10, ** / PAGE     5
                                                                                                                                    
0                            N A S T R A N  S U B S T R U C T U R E  D E C K  E C H O                                               
0                                                                                                                                   
                                                                                                                                    
                                                                                                                                    
     ALTER DECK ECHO
        1    LABEL     LBSEND $                                                      
        2    JUMP      FINIS $                                                       
1     WINDMILL PANEL SECTIONS FOR AUTOMATED MULTI-STAGE SUBSTRUCTUR         /    95 SUN SOLARIS NASTRAN    / FEB 10, ** / PAGE     6
      NASTRAN DEMONSTRATION PROBLEM NO. D02-02-7A                                                                                   
0     NORMAL MODES FOR SMALLMIL, RUN 7, PHASE 2                                                                                     
0                                        C A S E    C O N T R O L   D E C K   E C H O                                               
                 CARD                                                                                                               
                 COUNT                                                                                                              
                  1      TITLE    = WINDMILL PANEL SECTIONS FOR AUTOMATED MULTI-STAGE SUBSTRUCTURING     
                  2      SUBTITLE = NASTRAN DEMONSTRATION PROBLEM NO. D02-02-7A                          
                  3      LABEL    = NORMAL MODES FOR SMALLMIL, RUN 7, PHASE 2                            
                  4      METHOD   = 10                                                                   
0*** USER FATAL MESSAGE    603
 THE ABOVE CARD DOES NOT END PROPERLY. COMMENTS SHOULDBE PRECEEDED
