 DEBUG: NASTRAN main program starting...
     NASTRAN  TITLEOPT=-1, BANDIT=-1                                                 






                                  ****
                                *      *
                               *        *
                               *  N A S T R A N
                               *        *
                                *      *
                                  ****


                             SUN COMPUTER SYSTEMS    
                                SOLARIS VERSION

                          SYSTEM RELEASE -  1995 ED.

                                DISTRIBUTED BY

         COMPUTER SOFTWARE MANAGEMENT AND INFORMATION CENTER (COSMIC)
                 UNIVERSITY OF GEORGIA, ATHENS, GEORGIA 30602
                 PHONE: (706)542-3265      FAX: (706)542-4807
1                                                                           /    95 SUN SOLARIS NASTRAN    / FEB 10, ** / PAGE     2
                                                                                                                                    
0                                                                                                                                   
                                                                                                         
                                                                                                         
                         INSTALLATION CENTER USER INFORMATION GIVEN IN THIS SECTION                      
                                                                                                         
                                     *********************************************                       
                                     *                                           *                       
                                     *  PLEASE READ THE COMMENT IN DEMO PROBLEM  *                       
                                     *  D01002A ABOUT SYSTEM TIMING CONSTANTS    *                       
                                     *                                           *                       
                                     *********************************************                       
                                                                                                         
                         ===X=    TOP OF PAGE REQUEST IF 'X' IS REPLACED BY '='                          
                                                                                                         
1                                                                           /    95 SUN SOLARIS NASTRAN    / FEB 10, ** / PAGE     3
                                                                                                                                    
0        N A S T R A N    E X E C U T I V E    C O N T R O L    D E C K    E C H O                                                  
0                                                                                                                                   
                                                                                                                                    
                                                                                                                                    
     ID    T01241A,NASTRAN                                                           
     APP   DISPLACEMENT                                                              
     SOL   1,0                                                                       
0*** USER FATAL MESSAGE  507, ILLEGAL SPECIFICATION OR FORMAT ON PRECEDING CARD.
     IMHERE =  397
     TIME  10                                                                        
     ALTER 58                                                                        
0*** USER FATAL MESSAGE  507, ILLEGAL SPECIFICATION OR FORMAT ON PRECEDING CARD.
     IMHERE =  350
         TABPT   EPT,,,,  //      $                                                  
         MATPRN  KGGX,,,, //      $                                                  
         PARAML  EPT //*TABLE1*/1/6      /V,N,RSP    $                               
         PARAML  EPT //*TABLE1*/1/4     //V,N,INT    $                               
         PARAML  EPT //*TABLE2*/1/4     //V,N,INT2   $ INTENTIONAL ERROR             
         PARAML  EPT //*TABLE2*/1/6    ///V,N,RDP    $                               
         PARAML  EPT //*TABLE2*/1/6      /RSPX/INTX/V,N,RDPX  $                      
         PARAML  EPT //*TABLE1*/1/1   ////V,N,BCD    $                               
         PARAML  EPT //*TABLE2*/1/6  /////V,N,SCPLX  $                               
         PARAML  EPT //*TABLE2*/1/6 //////V,N,DCPLX  $                               
         PARAML  EPT //*TABLE4*/1/6 //////V,N,DCPLX4 $                               
         PARAML  EPT //*TABLE2*/1/9      /V,N,LAST   $                               
         PARAML  EPT //*TABLE1*/1/9      /V,N,LAST1  $                               
         PARAML  KGGX//*MATRIX*/7/1      /V,N,R1     $                               
         PARAML  KGGX//*MATRIX*/3/1     //V,N,I1     $                               
         PARAML  KGGX//*MATRIX*/1/3    ///V,N,D1     $                               
         PARAML  KGGX//*MATRIX*/1/3   ////V,N,B1     $                               
         PARAML  KGGX//*MATRIX*/7/13 /////V,N,CS1    $                               
         PARAML  KGGX//*MATRIX*/13/7//////V,N,CD1    $                               
         PARAML  KGGX//*MATRIX*/13/19  ///V,N,D13    $                               
         SCALAR  KGGX//         1/1      /V,N,SP1    $                               
         SCALAR  KGGX//         1/3      /V,N,SP2    $                               
         SCALAR  KGGX//         3/1      /V,N,SP3    $                               
         SCALAR  KGGX//         7/13     /V,N,SP4    $                               
         SCALAR  KGGX//        19/13    //V,N,DP4    $                               
         SCALAR  KGGX//         7/13   ///V,N,CSP4   $                               
         SCALAR  KGGX//        13/7   ////V,N,CDP4   $                               
         PARAMR  //*ADD*     /V,N,R1SP4  /V,N,R1    /V,N,SP4   $                     
         PARAMR  //*SUB*     /V,N,R1SP4  /V,N,R1    /V,N,SP4   $                     
         PARAMR  //*ABS*     /V,N,ABSR1  /V,N,R1               $                     
         PARAMR  //*ABS*     /V,N,ABSRX //V,N,R1     $ INTENTIONAL ERROR INPUT       
         PARAMR  //*SQRT*    /V,N,SQTR1  /V,N,R1               $                     
         PARAMR  //*SQRT*    /V,N,SQTR1  /V,N,ABSR1            $                     
         PARAMR  //*MPYC* ////V,N,CMPY   /V,N,SCPLX /V,N,CS1   $                     
         PARAMR  //*COMPLEX*//V,N,R1     /V,N,SP4   /V,N,OUTC  $                     
         PARAMR  //*LE*     //V,N,R1     /V,N,SP4////V,N,LEFLG $                     
         PARAMD  //*MPY*     /V,N,RDPDP  /V,N,RDPX  /V,N,RDPX  $                     
1                                                                           /    95 SUN SOLARIS NASTRAN    / FEB 10, ** / PAGE     4
                                                                                                                                    
0        N A S T R A N    E X E C U T I V E    C O N T R O L    D E C K    E C H O                                                  
0                                                                                                                                   
                                                                                                                                    
                                                                                                                                    
         PARAMD  //*MPY*     /V,N,RDPDX //V,N,RDPX  /V,N,RDPY  $ ERROR INPUT         
         PARAMD  //*DIV*     /V,N,DP4X   /V,N,DP4   /V,N,RDPX  $                     
         PARAMD  //*EXP*     /V,N,EXPX   /V,N,DP4   /V,N,RDP   $                     
         PARAMD  //*CONJ* ////V,N,CONJX  /V,N,CDP4             $                     
         PARAMD  //*DIVC* ////V,N,DIVCX  /V,N,DCPLX4/V,N,CDP4  $                     
         PARAMD  //*EQ*     //V,N,EXPX   /V,N,DP4////V,N,EQFLG $                     
         PRTPARM // 0   $                                                            
         JUMP    FINIS  $                                                            
     ENDALTER                                                                        
     CEND                                                                            
0*** USER FATAL MESSAGE 8020, SYNTAX ERROR NEAR COLUMN  16 IN THE FOLLOWING CARD- 
                    ****SBST   1,  3                                                                
                    0        1         2         3         4         5         6         7         8
                    1        0         0         0         0         0         0         0         0
0*** USER FATAL MESSAGE 8020, SYNTAX ERROR NEAR COLUMN  16 IN THE FOLLOWING CARD- 
                    ****SBST   1,  3                                                                
                    0        1         2         3         4         5         6         7         8
                    1        0         0         0         0         0         0         0         0
0*** USER FATAL MESSAGE 8020, SYNTAX ERROR NEAR COLUMN  16 IN THE FOLLOWING CARD- 
                    ****SBST   1,  3                                                                
                    0        1         2         3         4         5         6         7         8
                    1        0         0         0         0         0         0         0         0
0*** USER FATAL MESSAGE 8020, SYNTAX ERROR NEAR COLUMN  16 IN THE FOLLOWING CARD- 
                    ****SBST   1,  3                                                                
                    0        1         2         3         4         5         6         7         8
                    1        0         0         0         0         0         0         0         0
0*** USER FATAL MESSAGE 8020, SYNTAX ERROR NEAR COLUMN  16 IN THE FOLLOWING CARD- 
                    ****SBST   1,  3                                                                
                    0        1         2         3         4         5         6         7         8
                    1        0         0         0         0         0         0         0         0
0*** USER FATAL MESSAGE 8020, SYNTAX ERROR NEAR COLUMN  16 IN THE FOLLOWING CARD- 
                    ****SBST   1,  3                                                                
                    0        1         2         3         4         5         6         7         8
                    1        0         0         0         0         0         0         0         0
0*** USER FATAL MESSAGE 8020, SYNTAX ERROR NEAR COLUMN  16 IN THE FOLLOWING CARD- 
                    ****SBST   1,  3                                                                
                    0        1         2         3         4         5         6         7         8
                    1        0         0         0         0         0         0         0         0
0*** USER FATAL MESSAGE 8020, SYNTAX ERROR NEAR COLUMN  16 IN THE FOLLOWING CARD- 
                    ****SBST   1,  3                                                                
                    0        1         2         3         4         5         6         7         8
                    1        0         0         0         0         0         0         0         0
  ERRTRC CALLED
  NAME=WRTMSG  
  IVAL=         100




                                        * * * END OF JOB * * *
1
 JOB TITLE =                                                                     
 DATE:  2/10/**
 END TIME: 12: 4: 4
 TOTAL WALL CLOCK TIME      0 SEC.
 
