 DEBUG: NASTRAN main program starting...
     NASTRAN FILES = OPTP                                                            






                                  ****
                                *      *
                               *        *
                               *  N A S T R A N
                               *        *
                                *      *
                                  ****


                             SUN COMPUTER SYSTEMS    
                                SOLARIS VERSION

                          SYSTEM RELEASE -  1995 ED.

                                DISTRIBUTED BY

         COMPUTER SOFTWARE MANAGEMENT AND INFORMATION CENTER (COSMIC)
                 UNIVERSITY OF GEORGIA, ATHENS, GEORGIA 30602
                 PHONE: (706)542-3265      FAX: (706)542-4807
1                                                                           /    95 SUN SOLARIS NASTRAN    / FEB 10, ** / PAGE     2
                                                                                                                                    
0                                                                                                                                   
                                                                                                         
                                                                                                         
                         INSTALLATION CENTER USER INFORMATION GIVEN IN THIS SECTION                      
                                                                                                         
                                     *********************************************                       
                                     *                                           *                       
                                     *  PLEASE READ THE COMMENT IN DEMO PROBLEM  *                       
                                     *  D01002A ABOUT SYSTEM TIMING CONSTANTS    *                       
                                     *                                           *                       
                                     *********************************************                       
                                                                                                         
                         ===X=    TOP OF PAGE REQUEST IF 'X' IS REPLACED BY '='                          
                                                                                                         
1                                                                           /    95 SUN SOLARIS NASTRAN    / FEB 10, ** / PAGE     3
                                                                                                                                    
0        N A S T R A N    E X E C U T I V E    C O N T R O L    D E C K    E C H O                                                  
0                                                                                                                                   
                                                                                                                                    
                                                                                                                                    
     ID    T03121B,NASTRAN                                                           
     $                                                                               
     $ NOTES - FOLLOWING STEPS MUST BE DONE FIRST BEFORE RUNNING THIS DEMO.          
     $     (1) LOOK FOR 'CASE2' IN THE T03121A CHECKPOINT DICTIONARY DECK            
     $         (T03121A.PCH OR .DIC).  DELETE ALL THE CARDS FROM THE 'REENTER        
     $         AT DMAP SEQUENCE NUMBER' CARD IMMEDIATELY BELOW THE 'CASE2' TO        
     $         THE END OF THE DECK.                                                  
     $         (DELETE CARDS 216 THRU 271 IN 1993 VERSION)                           
     $     (2) NASTRAN FATAL ERROR IF THESE CARDS ARE NOT REMOVED.                   
