 DEBUG: NASTRAN main program starting...
     NASTRAN SYSTEM(93)=1, FILES=PLT2                                                






                                  ****
                                *      *
                               *        *
                               *  N A S T R A N
                               *        *
                                *      *
                                  ****


                             SUN COMPUTER SYSTEMS    
                                SOLARIS VERSION

                          SYSTEM RELEASE -  1995 ED.

                                DISTRIBUTED BY

         COMPUTER SOFTWARE MANAGEMENT AND INFORMATION CENTER (COSMIC)
                 UNIVERSITY OF GEORGIA, ATHENS, GEORGIA 30602
                 PHONE: (706)542-3265      FAX: (706)542-4807
1                                                                           /    95 SUN SOLARIS NASTRAN    / FEB 10, ** / PAGE     2
                                                                                                                                    
0                                                                                                                                   
                                                                                                         
                                                                                                         
                         INSTALLATION CENTER USER INFORMATION GIVEN IN THIS SECTION                      
                                                                                                         
                                     *********************************************                       
                                     *                                           *                       
                                     *  PLEASE READ THE COMMENT IN DEMO PROBLEM  *                       
                                     *  D01002A ABOUT SYSTEM TIMING CONSTANTS    *                       
                                     *                                           *                       
                                     *********************************************                       
                                                                                                         
                         ===X=    TOP OF PAGE REQUEST IF 'X' IS REPLACED BY '='                          
                                                                                                         
1                                                                           /    95 SUN SOLARIS NASTRAN    / FEB 10, ** / PAGE     3
                                                                                                                                    
0        N A S T R A N    E X E C U T I V E    C O N T R O L    D E C K    E C H O                                                  
0                                                                                                                                   
                                                                                                                                    
                                                                                                                                    
     ID    T09061A,NASTRAN                                                           
     APP   AERO                                                                      
     SOL   9                                                                         
0*** USER FATAL MESSAGE  507, ILLEGAL SPECIFICATION OR FORMAT ON PRECEDING CARD.
     IMHERE =  397
     DIAG  14                                                                        
0*** USER FATAL MESSAGE  507, ILLEGAL SPECIFICATION OR FORMAT ON PRECEDING CARD.
     IMHERE =  520
     TIME  1000                                                                      
     CEND                                                                            
1     MODAL FLUTTER ANALYSIS OF AN ADVANCED TURBOPROP                       /    95 SUN SOLARIS NASTRAN    / FEB 10, ** / PAGE     4
      NASTRAN TEST PROBLEM NO. T09-06-1A                                                                                            
0     10 BLADES, 6800 RPM, .70 TUNNEL MACH NO.                                                                                      
0                                        C A S E    C O N T R O L   D E C K   E C H O                                               
                 CARD                                                                                                               
                 COUNT                                                                                                              
                  1      TITLE    = MODAL FLUTTER ANALYSIS OF AN ADVANCED TURBOPROP                      
                  2      SUBTITLE = NASTRAN TEST PROBLEM NO. T09-06-1A                                   
                  3      LABEL    = 10 BLADES, 6800 RPM, .70 TUNNEL MACH NO.                             
                  4      $                                                                               
                  5      SPC      = 1                                                                    
0*** USER FATAL MESSAGE    603
 THE ABOVE CARD DOES NOT END PROPERLY. COMMENTS SHOULDBE PRECEEDED
 BY A DOLLAR SIGN.
                  6      METHOD   = 1                                                                    
0*** USER FATAL MESSAGE    603
 THE ABOVE CARD DOES NOT END PROPERLY. COMMENTS SHOULDBE PRECEEDED
 BY A DOLLAR SIGN.
                  7      FMETHOD  = 1                                                                    
0*** USER FATAL MESSAGE    603
 THE ABOVE CARD DOES NOT END PROPERLY. COMMENTS SHOULDBE PRECEEDED
 BY A DOLLAR SIGN.
                  8      $                                                                               
                  9      OUTPUT(XYOUT)                                                                   
                 10      $                                                                               
                 11      PLOTTER NASTPLT D,0                                                             
                 12      XPAPER = 8.5                                                                    
                 13      YPAPER = 11.0                                                                   
                 14      YAXIS  = YES                                                                    
                 15      XINTERCEPT = 7046.0  $ OPERATING VELOCITY                                       
                 16      XTAXIS =  YES                                                                   
                 17      XBAXIS =  YES                                                                   
                 18      CURVELINESYMBOL = 6                                                             
                 19      XDIVISIONS   = 10                                                               
                 20      YTDIVISIONS  = 10                                                               
                 21      YBDIVISIONS  = 10                                                               
                 22      YTGRID LINES = YES                                                              
                 23      YBGRID LINES = YES                                                              
                 24      XTGRID LINES = YES                                                              
                 25      XBGRID LINES = YES                                                              
                 26      XTITLE  =     VELOCITY VSBAR , IN/SEC....REF VSBAR = 7046 IN/SEC, CASE 3        
                 27      YTTITLE =          DAMPING G                                                    
                 28      YBTITLE =     FREQUENCY F, HZ                                                   
                 29      TCURVE  =   K=.1,.2,.3,.6,.9,1.2,1.5,SIG=0.0                                    
                 30      XYPLOT,XYPRINT VG/ 1(G,F), 2(G,F), 3(G,F), 4(G,F), 5(G,F), 6(G,F)               
0*** USER FATAL MESSAGE 676,   /    IS NOT RECOGNIZED AS AN XYPLOT COMMAND CARD OR PARAMETER.
                 31      TCURVE  =   K=.1,.2,.3,.6,.9,1.2,1.5,SIG=36.0                                   
                 32      XYPLOT,XYPRINT VG/ 7(G,F), 8(G,F), 9(G,F),10(G,F),11(G,F),12(G,F)               
0*** USER FATAL MESSAGE 300 *** INTEGER DATA OUT OF MACHINE RANGE

     'XYPLOT,XYPRINT VG/ 7(G,F), 8(G,F), 9(G,F),10(G,F),11(G,F),12(G,F)       '
                 33      TCURVE  =   K=.1,.2,.3,.6,.9,1.2,1.5,SIG=72.0                                   
1     MODAL FLUTTER ANALYSIS OF AN ADVANCED TURBOPROP                       /    95 SUN SOLARIS NASTRAN    / FEB 10, ** / PAGE     5
      NASTRAN TEST PROBLEM NO. T09-06-1A                                                                                            
0     10 BLADES, 6800 RPM, .70 TUNNEL MACH NO.                                                                                      
0                                        C A S E    C O N T R O L   D E C K   E C H O                                               
                 CARD                                                                                                               
                 COUNT                                                                                                              
                 34      XYPLOT,XYPRINT VG/13(G,F),14(G,F),15(G,F),16(G,F),17(G,F),18(G,F)               
0*** USER FATAL MESSAGE 676,   /    IS NOT RECOGNIZED AS AN XYPLOT COMMAND CARD OR PARAMETER.
                 35      TCURVE  =   K=.1,.2,.3,.6,.9,1.2,1.5,SIG=108.0                                  
                 36      XYPLOT,XYPRINT VG/19(G,F),20(G,F),21(G,F),22(G,F),23(G,F),24(G,F)               
0*** USER FATAL MESSAGE 300 *** INTEGER DATA OUT OF MACHINE RANGE

     'XYPLOT,XYPRINT VG/19(G,F),20(G,F),21(G,F),22(G,F),23(G,F),24(G,F)       '
                 37      TCURVE  =   K=.1,.2,.3,.6,.9,1.2,1.5,SIG=144.0                                  
                 38      XYPLOT,XYPRINT VG/25(G,F),26(G,F),27(G,F),28(G,F),29(G,F),30(G,F)               
0*** USER FATAL MESSAGE 300 *** INTEGER DATA OUT OF MACHINE RANGE

     'XYPLOT,XYPRINT VG/25(G,F),26(G,F),27(G,F),28(G,F),29(G,F),30(G,F)       '
                 39      TCURVE  =   K=.1,.2,.3,.6,.9,1.2,1.5,SIG=180.0                                  
                 40      XYPLOT,XYPRINT VG/31(G,F),32(G,F),33(G,F),34(G,F),35(G,F),36(G,F)               
0*** USER FATAL MESSAGE 300 *** INTEGER DATA OUT OF MACHINE RANGE

     'XYPLOT,XYPRINT VG/31(G,F),32(G,F),33(G,F),34(G,F),35(G,F),36(G,F)       '
                 41      TCURVE  =   K=.1,.2,.3,.6,.9,1.2,1.5,SIG=-144.0                                 
                 42      XYPLOT,XYPRINT VG/37(G,F),38(G,F),39(G,F),40(G,F),41(G,F),42(G,F)               
0*** USER FATAL MESSAGE 300 *** INTEGER DATA OUT OF MACHINE RANGE

     'XYPLOT,XYPRINT VG/37(G,F),38(G,F),39(G,F),40(G,F),41(G,F),42(G,F)       '
                 43      TCURVE  =   K=.1,.2,.3,.6,.9,1.2,1.5,SIG=-108.0                                 
                 44      XYPLOT,XYPRINT VG/43(G,F),44(G,F),45(G,F),46(G,F),47(G,F),48(G,F)               
0*** USER FATAL MESSAGE 300 *** INTEGER DATA OUT OF MACHINE RANGE

     'XYPLOT,XYPRINT VG/43(G,F),44(G,F),45(G,F),46(G,F),47(G,F),48(G,F)       '
                 45      TCURVE  =   K=.1,.2,.3,.6,.9,1.2,1.5,SIG=-72.0                                  
                 46      XYPLOT,XYPRINT VG/49(G,F),50(G,F),51(G,F),52(G,F),53(G,F),54(G,F)               
0*** USER FATAL MESSAGE 300 *** INTEGER DATA OUT OF MACHINE RANGE

     'XYPLOT,XYPRINT VG/49(G,F),50(G,F),51(G,F),52(G,F),53(G,F),54(G,F)       '
                 47      TCURVE  =   K=.1,.2,.3,.6,.9,1.2,1.5,SIG=-36.0                                  
                 48      XYPLOT,XYPRINT VG/55(G,F),56(G,F),57(G,F),58(G,F),59(G,F),60(G,F)               
0*** USER FATAL MESSAGE 300 *** INTEGER DATA OUT OF MACHINE RANGE

     'XYPLOT,XYPRINT VG/55(G,F),56(G,F),57(G,F),58(G,F),59(G,F),60(G,F)       '
                 49      BEGIN BULK                                                                      
