 DEBUG: NASTRAN main program starting...






                                  ****
                                *      *
                               *        *
                               *  N A S T R A N
                               *        *
                                *      *
                                  ****


                             SUN COMPUTER SYSTEMS    
                                SOLARIS VERSION

                          SYSTEM RELEASE -  1995 ED.

                                DISTRIBUTED BY

         COMPUTER SOFTWARE MANAGEMENT AND INFORMATION CENTER (COSMIC)
                 UNIVERSITY OF GEORGIA, ATHENS, GEORGIA 30602
                 PHONE: (706)542-3265      FAX: (706)542-4807
1                                                                           /    95 SUN SOLARIS NASTRAN    / FEB 10, ** / PAGE     2
                                                                                                                                    
0                                                                                                                                   
                                                                                                         
                                                                                                         
                         INSTALLATION CENTER USER INFORMATION GIVEN IN THIS SECTION                      
                                                                                                         
                                     *********************************************                       
                                     *                                           *                       
                                     *  PLEASE READ THE COMMENT IN DEMO PROBLEM  *                       
                                     *  D01002A ABOUT SYSTEM TIMING CONSTANTS    *                       
                                     *                                           *                       
                                     *********************************************                       
                                                                                                         
                         ===X=    TOP OF PAGE REQUEST IF 'X' IS REPLACED BY '='                          
                                                                                                         
1                                                                           /    95 SUN SOLARIS NASTRAN    / FEB 10, ** / PAGE     3
                                                                                                                                    
0        N A S T R A N    E X E C U T I V E    C O N T R O L    D E C K    E C H O                                                  
0                                                                                                                                   
                                                                                                                                    
                                                                                                                                    
     ID    T09071A,NASTRAN                                                           
     APP   DISP                                                                      
     TIME  40                                                                        
     SOL   9                                                                         
0*** USER FATAL MESSAGE  507, ILLEGAL SPECIFICATION OR FORMAT ON PRECEDING CARD.
     IMHERE =  397
     DIAG  14                                                                        
0*** USER FATAL MESSAGE  507, ILLEGAL SPECIFICATION OR FORMAT ON PRECEDING CARD.
     IMHERE =  520


 *** CAN NOT OPEN FILE (UNIT= 60) - COSDBCL
     SUGGESTION- CHECK USER ID OR QUALIFIER
                                                                                     
     CEND                                                                            
1     DYNAMIC DELAMINATION BUCKLING IN COMPOSITE LAMINATES UDER             /    95 SUN SOLARIS NASTRAN    / FEB 10, ** / PAGE     4
      NASTRAN TEST PROBLEM NO. T09-07-1A                                                                                            
0     A DYNAMIC TRANSIENT RESPONSE ANALYSIS - IMPACT LOADING                                                                        
0                                        C A S E    C O N T R O L   D E C K   E C H O                                               
                 CARD                                                                                                               
                 COUNT                                                                                                              
                  1      TITLE    = DYNAMIC DELAMINATION BUCKLING IN COMPOSITE LAMINATES UDER            
                  2      SUBTITLE = NASTRAN TEST PROBLEM NO. T09-07-1A                                   
                  3      LABEL    = A DYNAMIC TRANSIENT RESPONSE ANALYSIS - IMPACT LOADING               
                  4        DISP   = ALL                                                                  
0*** USER FATAL MESSAGE    603
 THE ABOVE CARD DOES NOT END PROPERLY. COMMENTS SHOULDBE PRECEEDED
 BY A DOLLAR SIGN.
                  5        SPC    = 4                                                                    
0*** USER FATAL MESSAGE    603
 THE ABOVE CARD DOES NOT END PROPERLY. COMMENTS SHOULDBE PRECEEDED
 BY A DOLLAR SIGN.
                  6      SUBCASE 1                                                                       
                  7        DLOAD  = 4                                                                    
0*** USER FATAL MESSAGE    603
 THE ABOVE CARD DOES NOT END PROPERLY. COMMENTS SHOULDBE PRECEEDED
 BY A DOLLAR SIGN.
                  8        TSTEP  = 7                                                                    
0*** USER FATAL MESSAGE    603
 THE ABOVE CARD DOES NOT END PROPERLY. COMMENTS SHOULDBE PRECEEDED
 BY A DOLLAR SIGN.
                  9        STRESS = ALL                                                                  
0*** USER FATAL MESSAGE    603
 THE ABOVE CARD DOES NOT END PROPERLY. COMMENTS SHOULDBE PRECEEDED
 BY A DOLLAR SIGN.
                 10      SUBCASE 2                                                                       
                 11        METHOD = 25                                                                   
0*** USER FATAL MESSAGE    603
 THE ABOVE CARD DOES NOT END PROPERLY. COMMENTS SHOULDBE PRECEEDED
 BY A DOLLAR SIGN.
                 12      BEGIN BULK                                                                      

 *** ILLEGAL CHARACTER ENCOUNTERED IN INPUT CARD
    'CBAR,  1, 1,  1,2,0.    0.1.0   1                                               '
0*** SYSTEM FATAL MESSAGE 219, MISSING ENDDATA CARD.  IMHERE =    170


                        (NO. OF UNSORTED BULK DATA CARDS READ =     0, INCLUDING   0 COMMENT CARDS)
0*** USER FATAL MESSAGE 204, COLD START NO BULK DATA.
  ERRTRC CALLED
  NAME=WRTMSG  
  IVAL=         100




                                        * * * END OF JOB * * *
1
 JOB TITLE =  DYNAMIC DELAMINATION BUCKLING IN COMPOSITE LAMINATES UDER          
 DATE:  2/10/**
 END TIME: 12: 4:16
 TOTAL WALL CLOCK TIME      0 SEC.
 
