 DEBUG: NASTRAN main program starting...
     NASTRAN FILES = PLT2                                                            






                                  ****
                                *      *
                               *        *
                               *  N A S T R A N
                               *        *
                                *      *
                                  ****


                             SUN COMPUTER SYSTEMS    
                                SOLARIS VERSION

                          SYSTEM RELEASE -  1995 ED.

                                DISTRIBUTED BY

         COMPUTER SOFTWARE MANAGEMENT AND INFORMATION CENTER (COSMIC)
                 UNIVERSITY OF GEORGIA, ATHENS, GEORGIA 30602
                 PHONE: (706)542-3265      FAX: (706)542-4807
1                                                                           /    95 SUN SOLARIS NASTRAN    / FEB 10, ** / PAGE     2
                                                                                                                                    
0                                                                                                                                   
                                                                                                         
                                                                                                         
                         INSTALLATION CENTER USER INFORMATION GIVEN IN THIS SECTION                      
                                                                                                         
                                     *********************************************                       
                                     *                                           *                       
                                     *  PLEASE READ THE COMMENT IN DEMO PROBLEM  *                       
                                     *  D01002A ABOUT SYSTEM TIMING CONSTANTS    *                       
                                     *                                           *                       
                                     *********************************************                       
                                                                                                         
                         ===X=    TOP OF PAGE REQUEST IF 'X' IS REPLACED BY '='                          
                                                                                                         
1                                                                           /    95 SUN SOLARIS NASTRAN    / FEB 10, ** / PAGE     3
                                                                                                                                    
0        N A S T R A N    E X E C U T I V E    C O N T R O L    D E C K    E C H O                                                  
0                                                                                                                                   
                                                                                                                                    
                                                                                                                                    
     ID    T16011A,NASTRAN                                                           
     APP   DISPLACEMENT                                                              
     SOL   16                                                                        
0*** USER FATAL MESSAGE  507, ILLEGAL SPECIFICATION OR FORMAT ON PRECEDING CARD.
     IMHERE =  397
     DIAG  14                                                                        
0*** USER FATAL MESSAGE  507, ILLEGAL SPECIFICATION OR FORMAT ON PRECEDING CARD.
     IMHERE =  520
     TIME  20                                                                        
     CEND                                                                            
1     STATIC AEROTHERMOELASTIC ANALYSIS OF A ROTOR BLADE                    /    95 SUN SOLARIS NASTRAN    / FEB 10, ** / PAGE     4
      NASTRAN TEST PROBLEM NO. T16-01-1A                                                                                            
0                                                                                                                                   
0                                        C A S E    C O N T R O L   D E C K   E C H O                                               
                 CARD                                                                                                               
                 COUNT                                                                                                              
                  1      TITLE    = STATIC AEROTHERMOELASTIC ANALYSIS OF A ROTOR BLADE                   
                  2      SUBTITLE = NASTRAN TEST PROBLEM NO. T16-01-1A                                   
                  3      SPC    = 500                                                                    
0*** USER FATAL MESSAGE    603
 THE ABOVE CARD DOES NOT END PROPERLY. COMMENTS SHOULDBE PRECEEDED
 BY A DOLLAR SIGN.
                  4      MPC    = 600                                                                    
0*** USER FATAL MESSAGE    603
 THE ABOVE CARD DOES NOT END PROPERLY. COMMENTS SHOULDBE PRECEEDED
 BY A DOLLAR SIGN.
                  5      LOAD   = 1                                                                      
0*** USER FATAL MESSAGE    603
 THE ABOVE CARD DOES NOT END PROPERLY. COMMENTS SHOULDBE PRECEEDED
 BY A DOLLAR SIGN.
                  6      DISP   = ALL                                                                    
0*** USER FATAL MESSAGE    603
 THE ABOVE CARD DOES NOT END PROPERLY. COMMENTS SHOULDBE PRECEEDED
 BY A DOLLAR SIGN.
                  7      SPCF   = ALL                                                                    
0*** USER FATAL MESSAGE    603
 THE ABOVE CARD DOES NOT END PROPERLY. COMMENTS SHOULDBE PRECEEDED
 BY A DOLLAR SIGN.
                  8      OLOAD  = ALL                                                                    
0*** USER FATAL MESSAGE    603
 THE ABOVE CARD DOES NOT END PROPERLY. COMMENTS SHOULDBE PRECEEDED
 BY A DOLLAR SIGN.
                  9      STRESS = ALL                                                                    
0*** USER FATAL MESSAGE    603
 THE ABOVE CARD DOES NOT END PROPERLY. COMMENTS SHOULDBE PRECEEDED
 BY A DOLLAR SIGN.
                 10      FORCE  = ALL                                                                    
0*** USER FATAL MESSAGE    603
 THE ABOVE CARD DOES NOT END PROPERLY. COMMENTS SHOULDBE PRECEEDED
 BY A DOLLAR SIGN.
                 11      SUBCASE 1                                                                       
                 12      LABEL  = LINEAR SOLUTION OF ROTOR BLADE                                         
                 13      SUBCASE 2                                                                       
                 14      LABEL  = NONLINEAR SOLUTION OF ROTOR BLADE                                      
                 15      GPFORCE= ALL                                                                    
1     STATIC AEROTHERMOELASTIC ANALYSIS OF A ROTOR BLADE                    /    95 SUN SOLARIS NASTRAN    / FEB 10, ** / PAGE     5
      NASTRAN TEST PROBLEM NO. T16-01-1A                                                                                            
0                                                                                                                                   
0                                        C A S E    C O N T R O L   D E C K   E C H O                                               
                 CARD                                                                                                               
                 COUNT                                                                                                              
0*** USER FATAL MESSAGE    603
 THE ABOVE CARD DOES NOT END PROPERLY. COMMENTS SHOULDBE PRECEEDED
 BY A DOLLAR SIGN.
