





                                  ****
                                *      *
                               *        *
                               *  N A S T R A N
                               *        *
                                *      *
                                  ****


                             SUN COMPUTER SYSTEMS    
                                SOLARIS VERSION

                          SYSTEM RELEASE -  1995 ED.

                                DISTRIBUTED BY

         COMPUTER SOFTWARE MANAGEMENT AND INFORMATION CENTER (COSMIC)
                 UNIVERSITY OF GEORGIA, ATHENS, GEORGIA 30602
                 PHONE: (706)542-3265      FAX: (706)542-4807
1                                                                           /    95 SUN SOLARIS NASTRAN    / FEB 10, 26 / PAGE     2
                                                                                                                                    
0                                                                                                                                   
                                                                                                         
                                                                                                         
                         INSTALLATION CENTER USER INFORMATION GIVEN IN THIS SECTION                      
                                                                                                         
                                     *********************************************                       
                                     *                                           *                       
                                     *  PLEASE READ THE COMMENT IN DEMO PROBLEM  *                       
                                     *  D01002A ABOUT SYSTEM TIMING CONSTANTS    *                       
                                     *                                           *                       
                                     *********************************************                       
                                                                                                         
                         ===X=    TOP OF PAGE REQUEST IF 'X' IS REPLACED BY '='                          
                                                                                                         
1                                                                           /    95 SUN SOLARIS NASTRAN    / FEB 10, 26 / PAGE     3
                                                                                                                                    
0        N A S T R A N    E X E C U T I V E    C O N T R O L    D E C K    E C H O                                                  
0                                                                                                                                   
                                                                                                                                    
                                                                                                                                    
     ID    D06011A,NASTRAN                                                           
     APP   DISPLACEMENT                                                              
     TIME  100                                                                       
     SOL   6,1                                                                       
0*** USER FATAL MESSAGE  507, ILLEGAL SPECIFICATION OR FORMAT ON PRECEDING CARD.
     IMHERE =  397
     CEND                                                                            
1     PIECEWISE LINEAR ANALYSIS OF A CRACKED PANEL                          /    95 SUN SOLARIS NASTRAN    / FEB 10, 26 / PAGE     4
      NASTRAN DEMONSTRATION PROBLEM NO. D06-01-1A                                                                                   
0                                                                                                                                   
0                                        C A S E    C O N T R O L   D E C K   E C H O                                               
                 CARD                                                                                                               
                 COUNT                                                                                                              
                  1      TITLE    = PIECEWISE LINEAR ANALYSIS OF A CRACKED PANEL                         
                  2      SUBTITLE = NASTRAN DEMONSTRATION PROBLEM NO. D06-01-1A                          
                  3      MAXLINES = 50000                                                                
0*** USER FATAL MESSAGE 300 *** INTEGER DATA OUT OF MACHINE RANGE

     'MAXLINES = 50000                                                        '
0*** USER FATAL MESSAGE    617
 INCORRECT OR MISSING VALUE ON CASE CONTROL CARD.  CHECK FOR CORRECT CARD FORMAT.
                  4      $   ECHO = NONE                                                                 
                  5           SPC = 10                                                                   
0*** USER FATAL MESSAGE    603
 THE ABOVE CARD DOES NOT END PROPERLY. COMMENTS SHOULDBE PRECEEDED
 BY A DOLLAR SIGN.
                  6          LOAD = 600                                                                  
0*** USER FATAL MESSAGE    603
 THE ABOVE CARD DOES NOT END PROPERLY. COMMENTS SHOULDBE PRECEEDED
 BY A DOLLAR SIGN.
                  7          PLCOEFFICIENT = 23                                                          
0*** USER FATAL MESSAGE    603
 THE ABOVE CARD DOES NOT END PROPERLY. COMMENTS SHOULDBE PRECEEDED
 BY A DOLLAR SIGN.
                  8      OUTPUT                                                                          
0*** USER FATAL MESSAGE    617
 INCORRECT OR MISSING VALUE ON CASE CONTROL CARD.  CHECK FOR CORRECT CARD FORMAT.
                  9      $                                                                               
                 10      SET 1 = 1 THRU 26,42,43,50,77,107,137,167,195,222,249,272,293,341,347,          
                 11              348                                                                     
0*** USER FATAL MESSAGE 300 *** INTEGER DATA OUT OF MACHINE RANGE

     '        348                                                             '
                 12      SET 2 = 1 THRU 36, 196, 200                                                     
0*** USER FATAL MESSAGE 300 *** INTEGER DATA OUT OF MACHINE RANGE

     'SET 2 = 1 THRU 36, 196, 200                                             '
                 13      $                                                                               
0*** USER FATAL MESSAGE    614
 THE ABOVE SET IS INCORRECTLY SPECIFIED.  CHECK FORMAT ON THIS OR PREVIOUS CARD.
                 14            DISPLACEMENT = 2                                                          
0*** USER FATAL MESSAGE    608
 THE SET ID SPECIFIED ON THE ABOVE CARD MUST BE DEFINED PRIOR TO THIS CARD.
                 15            OLOAD    = ALL                                                            
0*** USER FATAL MESSAGE    603
 THE ABOVE CARD DOES NOT END PROPERLY. COMMENTS SHOULDBE PRECEEDED
 BY A DOLLAR SIGN.
                 16            SPCFORCE = ALL                                                            
0*** USER FATAL MESSAGE    603
 THE ABOVE CARD DOES NOT END PROPERLY. COMMENTS SHOULDBE PRECEEDED
 BY A DOLLAR SIGN.
1     PIECEWISE LINEAR ANALYSIS OF A CRACKED PANEL                          /    95 SUN SOLARIS NASTRAN    / FEB 10, 26 / PAGE     5
      NASTRAN DEMONSTRATION PROBLEM NO. D06-01-1A                                                                                   
0                                                                                                                                   
0                                        C A S E    C O N T R O L   D E C K   E C H O                                               
